Version 4
SHEET 1 2396 680
WIRE 240 -1408 208 -1408
WIRE 240 -1392 240 -1408
WIRE -48 -1312 -80 -1312
WIRE 256 -1312 208 -1312
WIRE 256 -1296 256 -1312
WIRE 256 -1216 256 -1232
WIRE 256 -1216 208 -1216
WIRE 304 -1216 256 -1216
WIRE 400 -1216 304 -1216
WIRE 512 -1216 400 -1216
WIRE 304 -1184 304 -1216
WIRE 400 -1184 400 -1216
WIRE 512 -1184 512 -1216
WIRE 304 -1088 304 -1120
WIRE 400 -1088 400 -1104
WIRE 512 -1072 512 -1104
WIRE 656 -1056 560 -1056
WIRE 656 -1040 656 -1056
WIRE 576 -1008 560 -1008
WIRE 512 -976 512 -992
WIRE 576 -976 576 -1008
WIRE 576 -976 512 -976
WIRE 512 -944 512 -976
WIRE 656 -944 656 -960
WIRE -80 -336 -192 -336
WIRE -32 -336 -80 -336
WIRE 64 -336 -32 -336
WIRE 112 -336 64 -336
WIRE 176 -336 112 -336
WIRE 272 -336 272 -368
WIRE 272 -336 256 -336
WIRE 352 -336 352 -368
WIRE 384 -336 352 -336
WIRE 448 -336 384 -336
WIRE 576 -336 512 -336
WIRE 640 -336 576 -336
WIRE 768 -336 640 -336
WIRE 832 -336 832 -368
WIRE 832 -336 768 -336
WIRE 912 -336 912 -368
WIRE 928 -336 912 -336
WIRE 1072 -336 1008 -336
WIRE 1168 -336 1072 -336
WIRE -192 -304 -192 -336
WIRE 576 -304 576 -336
WIRE 640 -304 640 -336
WIRE 1072 -304 1072 -336
WIRE 1168 -304 1168 -336
WIRE -32 -288 -32 -336
WIRE 576 -208 576 -240
WIRE 640 -208 640 -240
WIRE -192 -192 -192 -224
WIRE -32 -192 -32 -224
WIRE 1072 -192 1072 -240
WIRE 1168 -192 1168 -224
WIRE 112 -80 112 -336
WIRE -80 -16 -80 -336
WIRE -48 -16 -80 -16
WIRE 384 -16 384 -336
WIRE 384 -16 272 -16
WIRE 416 -16 384 -16
WIRE 512 -16 496 -16
WIRE 512 0 512 -16
WIRE -224 48 -256 48
WIRE -48 48 -160 48
WIRE 768 48 768 -336
WIRE 512 80 512 64
WIRE -256 112 -256 48
WIRE -176 112 -256 112
WIRE -48 112 -96 112
WIRE 336 112 272 112
WIRE 512 112 416 112
WIRE -256 144 -256 112
WIRE -176 176 -256 176
WIRE -48 176 -176 176
WIRE 400 176 272 176
WIRE 512 176 512 112
WIRE 512 176 480 176
WIRE -176 208 -176 176
WIRE 512 208 512 176
WIRE -48 240 -80 240
WIRE 768 240 768 128
WIRE 768 240 272 240
WIRE -256 272 -256 176
WIRE 768 304 768 240
WIRE -176 320 -176 288
WIRE 192 320 192 304
WIRE -256 416 -256 336
WIRE -176 416 -176 384
WIRE 32 416 32 304
WIRE 192 416 192 400
WIRE 768 416 768 384
FLAG 32 416 0
FLAG 192 416 0
FLAG -256 144 0
FLAG -192 -192 0
FLAG 576 -208 0
FLAG 512 208 0
FLAG 768 416 0
FLAG -176 416 0
FLAG -32 -192 0
FLAG 400 -1088 0
FLAG 512 80 0
FLAG 240 -1392 0
FLAG 64 -336 +5V
FLAG 304 -1088 0
FLAG -80 -1312 +5V
FLAG 512 -944 0
FLAG 656 -944 0
FLAG -256 416 0
FLAG 640 -208 0
FLAG 1168 -192 0
FLAG 1072 -192 0
SYMBOL PowerProducts\\LT1534-1 112 112 R0
SYMATTR InstName U1
SYMBOL ind 176 304 R0
SYMATTR InstName L1
SYMATTR Value 50n
SYMBOL cap -160 32 R90
WINDOW 0 0 32 VBottom 2
WINDOW 3 32 32 VTop 2
SYMATTR InstName C1
SYMATTR Value 1300p
SYMBOL res -80 96 R90
WINDOW 0 0 56 VBottom 2
WINDOW 3 32 56 VTop 2
SYMATTR InstName R1
SYMATTR Value 16.9k
SYMBOL voltage -192 -320 R0
WINDOW 123 0 0 Left 2
WINDOW 39 0 0 Left 2
SYMATTR InstName V1
SYMATTR Value 3.3V
SYMBOL ind2 256 -352 R270
WINDOW 0 32 56 VTop 2
WINDOW 3 4 56 VBottom 2
SYMATTR InstName L2
SYMATTR Value 164µ
SYMATTR Type ind
SYMBOL ind2 928 -352 M270
WINDOW 0 32 56 VTop 2
WINDOW 3 4 56 VBottom 2
SYMATTR InstName L3
SYMATTR Value 164µ
SYMATTR Type ind
SYMBOL schottky 448 -320 R270
WINDOW 0 32 32 VTop 2
WINDOW 3 0 32 VBottom 2
SYMATTR InstName D1
SYMATTR Value MBR735
SYMATTR Description Diode
SYMATTR Type diode
SYMBOL cap 560 -304 R0
SYMATTR InstName C3
SYMATTR Value 47µ
SYMBOL res 432 96 R90
WINDOW 0 0 56 VBottom 2
WINDOW 3 32 56 VTop 2
SYMATTR InstName R2
SYMATTR Value 1k
SYMBOL res 496 160 R90
WINDOW 0 0 56 VBottom 2
WINDOW 3 32 56 VTop 2
SYMATTR InstName R3
SYMATTR Value 1k
SYMBOL res 752 32 R0
SYMATTR InstName R4
SYMATTR Value 7.5k
SYMBOL res 752 288 R0
SYMATTR InstName R5
SYMATTR Value 2.49k
SYMBOL res -192 192 R0
SYMATTR InstName R6
SYMATTR Value 6.8k
SYMBOL cap -192 320 R0
SYMATTR InstName C4
SYMATTR Value 15n
SYMBOL cap -48 -288 R0
SYMATTR InstName C5
SYMATTR Value 4.7µ
SYMBOL res 384 -1200 R0
SYMATTR InstName R7
SYMATTR Value 100
SYMBOL res 512 -32 R90
WINDOW 0 0 56 VBottom 2
WINDOW 3 32 56 VTop 2
SYMATTR InstName R8
SYMATTR Value 10
SYMBOL cap 496 0 R0
SYMATTR InstName C6
SYMATTR Value 1n
SYMBOL PowerProducts\\LT3032-5 80 -1408 R0
SYMATTR InstName U2
SYMBOL cap 240 -1296 R0
SYMATTR InstName C7
SYMATTR Value 10n
SYMBOL cap 288 -1184 R0
SYMATTR InstName C8
SYMATTR Value 10µ
SYMBOL res 160 -352 M90
WINDOW 0 0 56 VBottom 2
WINDOW 3 32 56 VTop 2
SYMATTR InstName R9
SYMATTR Value 1.14
SYMBOL res 1024 -352 R90
WINDOW 0 0 56 VBottom 2
WINDOW 3 32 56 VTop 2
SYMATTR InstName R10
SYMATTR Value 1.14
SYMBOL res 496 -1200 R0
SYMATTR InstName R11
SYMATTR Value 100
SYMBOL sw 512 -976 R180
SYMATTR InstName S1
SYMATTR Value MYSW
SYMBOL voltage 656 -1056 R0
WINDOW 123 0 0 Left 2
WINDOW 39 0 0 Left 2
SYMATTR InstName V2
SYMATTR Value PULSE(0 1 40m 1n 1n 100m 200m)
SYMBOL cap -272 272 R0
SYMATTR InstName C9
SYMATTR Value 220p
SYMBOL cap 624 -304 R0
SYMATTR InstName C2
SYMATTR Value 47µ
SYMBOL res 1152 -320 R0
SYMATTR InstName R12
SYMATTR Value 50
SYMBOL cap 1056 -304 R0
SYMATTR InstName C10
SYMATTR Value 47µ
TEXT 64 -864 Left 2 !K1 L2 L3 0.9
TEXT -192 -392 Left 2 !.tran 50m
TEXT -88 -480 Left 2 ;Based on Cuk converter on pg. 14 of LT1534/1534-1 datasheet
TEXT -88 -448 Left 2 ;Without R8/C6 snubber, need to reduce coupling in order to reduce switching node ringing
TEXT 64 -896 Left 2 ;SRF0703-820M
TEXT 592 -1096 Left 2 !.model MYSW SW(Ron=1m Roff=1Meg Vt=.5 Vh=-.4)
