Version 4
SHEET 1 2396 680
WIRE 1280 -528 1248 -528
WIRE 1280 -512 1280 -528
WIRE 992 -432 960 -432
WIRE 1296 -432 1248 -432
WIRE 1296 -416 1296 -432
WIRE -80 -336 -192 -336
WIRE -32 -336 -80 -336
WIRE 64 -336 -32 -336
WIRE 112 -336 64 -336
WIRE 384 -336 112 -336
WIRE 768 -336 608 -336
WIRE 864 -336 768 -336
WIRE 992 -336 864 -336
WIRE 1296 -336 1296 -352
WIRE 1296 -336 1248 -336
WIRE 1344 -336 1296 -336
WIRE 1440 -336 1344 -336
WIRE 1552 -336 1440 -336
WIRE 384 -320 384 -336
WIRE 608 -320 608 -336
WIRE -192 -304 -192 -336
WIRE 864 -304 864 -336
WIRE 1344 -304 1344 -336
WIRE 1440 -304 1440 -336
WIRE 1552 -304 1552 -336
WIRE -32 -288 -32 -336
WIRE 384 -224 384 -240
WIRE 416 -224 384 -224
WIRE 608 -224 608 -240
WIRE 608 -224 576 -224
WIRE 864 -208 864 -240
WIRE 1344 -208 1344 -240
WIRE 1440 -208 1440 -224
WIRE -192 -192 -192 -224
WIRE -32 -192 -32 -224
WIRE 1552 -192 1552 -224
WIRE 1696 -176 1600 -176
WIRE 1696 -160 1696 -176
WIRE 416 -144 384 -144
WIRE 608 -144 576 -144
WIRE 1616 -128 1600 -128
WIRE 384 -96 384 -144
WIRE 464 -96 384 -96
WIRE 608 -96 608 -144
WIRE 608 -96 528 -96
WIRE 1552 -96 1552 -112
WIRE 1616 -96 1616 -128
WIRE 1616 -96 1552 -96
WIRE 112 -80 112 -336
WIRE 1552 -64 1552 -96
WIRE 1696 -64 1696 -80
WIRE -80 -16 -80 -336
WIRE -48 -16 -80 -16
WIRE 384 -16 384 -96
WIRE 384 -16 272 -16
WIRE 416 -16 384 -16
WIRE 512 -16 496 -16
WIRE 608 -16 608 -96
WIRE 512 0 512 -16
WIRE -224 48 -256 48
WIRE -48 48 -160 48
WIRE 768 48 768 -336
WIRE 512 80 512 64
WIRE 608 80 608 48
WIRE -256 112 -256 48
WIRE -176 112 -256 112
WIRE -48 112 -96 112
WIRE 336 112 272 112
WIRE 512 112 416 112
WIRE -256 144 -256 112
WIRE -48 176 -192 176
WIRE 400 176 272 176
WIRE 512 176 512 112
WIRE 512 176 480 176
WIRE -192 208 -192 176
WIRE 512 208 512 176
WIRE -48 240 -80 240
WIRE 304 240 272 240
WIRE -192 320 -192 288
WIRE 192 320 192 304
WIRE -192 416 -192 384
WIRE 32 416 32 304
WIRE 192 416 192 400
WIRE -80 464 -80 240
WIRE 768 464 768 128
WIRE 768 464 -80 464
WIRE 768 496 768 464
WIRE 768 608 768 576
FLAG 32 416 0
FLAG 192 416 0
FLAG -256 144 0
FLAG -192 -192 0
FLAG 608 80 0
FLAG 864 -208 0
FLAG 512 208 0
FLAG 768 608 0
FLAG -192 416 0
FLAG -32 -192 0
FLAG 1440 -208 0
FLAG 512 80 0
FLAG 1280 -512 0
FLAG 64 -336 +5V
FLAG 1344 -208 0
FLAG 960 -432 +5V
FLAG 1552 -64 0
FLAG 1696 -64 0
SYMBOL PowerProducts\\LT1534-1 112 112 R0
SYMATTR InstName U1
SYMBOL ind 176 304 R0
SYMATTR InstName L1
SYMATTR Value 50n
SYMBOL cap -160 32 R90
WINDOW 0 0 32 VBottom 2
WINDOW 3 32 32 VTop 2
SYMATTR InstName C1
SYMATTR Value 1300p
SYMBOL res -80 96 R90
WINDOW 0 0 56 VBottom 2
WINDOW 3 32 56 VTop 2
SYMATTR InstName R1
SYMATTR Value 16.9k
SYMBOL voltage -192 -320 R0
WINDOW 123 0 0 Left 2
WINDOW 39 0 0 Left 2
SYMATTR InstName V1
SYMATTR Value 5V
SYMBOL ind2 400 -240 R0
SYMATTR InstName L2
SYMATTR Value 164µ
SYMATTR Type ind
SYMBOL ind2 592 -240 M0
SYMATTR InstName L3
SYMATTR Value 164µ
SYMATTR Type ind
SYMBOL cap 528 -112 R90
WINDOW 0 0 32 VBottom 2
WINDOW 3 32 32 VTop 2
SYMATTR InstName C2
SYMATTR Value 47µ
SYMBOL schottky 592 -16 R0
SYMATTR InstName D1
SYMATTR Value MBR735
SYMATTR Description Diode
SYMATTR Type diode
SYMBOL cap 848 -304 R0
SYMATTR InstName C3
SYMATTR Value 10µ
SYMBOL res 432 96 R90
WINDOW 0 0 56 VBottom 2
WINDOW 3 32 56 VTop 2
SYMATTR InstName R2
SYMATTR Value 1k
SYMBOL res 496 160 R90
WINDOW 0 0 56 VBottom 2
WINDOW 3 32 56 VTop 2
SYMATTR InstName R3
SYMATTR Value 1k
SYMBOL res 752 32 R0
SYMATTR InstName R4
SYMATTR Value 1.4k
SYMBOL res 752 480 R0
SYMATTR InstName R5
SYMATTR Value 1k
SYMBOL res -208 192 R0
SYMATTR InstName R6
SYMATTR Value 2k
SYMBOL cap -208 320 R0
SYMATTR InstName C4
SYMATTR Value 33n
SYMBOL cap -48 -288 R0
SYMATTR InstName C5
SYMATTR Value 4.7µ
SYMBOL res 1424 -320 R0
SYMATTR InstName R7
SYMATTR Value 100
SYMBOL res 512 -32 R90
WINDOW 0 0 56 VBottom 2
WINDOW 3 32 56 VTop 2
SYMATTR InstName R8
SYMATTR Value 100
SYMBOL cap 496 0 R0
SYMATTR InstName C6
SYMATTR Value 10n
SYMBOL PowerProducts\\LT3032-5 1120 -528 R0
SYMATTR InstName U2
SYMBOL cap 1280 -416 R0
SYMATTR InstName C7
SYMATTR Value 10n
SYMBOL cap 1328 -304 R0
SYMATTR InstName C8
SYMATTR Value 10µ
SYMBOL res 400 -336 M0
SYMATTR InstName R9
SYMATTR Value 1.14
SYMBOL res 592 -336 R0
SYMATTR InstName R10
SYMATTR Value 1.14
SYMBOL res 1536 -320 R0
SYMATTR InstName R11
SYMATTR Value 100
SYMBOL sw 1552 -96 R180
SYMATTR InstName S1
SYMATTR Value MYSW
SYMBOL voltage 1696 -176 R0
WINDOW 123 0 0 Left 2
WINDOW 39 0 0 Left 2
SYMATTR InstName V2
SYMATTR Value PULSE(0 1 40m 1n 1n 100m 200m)
TEXT 416 -264 Left 2 !K1 L2 L3 0.9
TEXT -192 -392 Left 2 !.tran 50m
TEXT -88 -480 Left 2 ;Based on Cuk converter on pg. 14 of LT1534/1534-1 datasheet
TEXT -88 -448 Left 2 ;Without R8/C6 snubber, need to reduce coupling in order to reduce switching node ringing
TEXT 416 -296 Left 2 ;SRF0703-820M
TEXT 1632 -216 Left 2 !.model MYSW SW(Ron=1m Roff=1Meg Vt=.5 Vh=-.4)
