Version 4
SHEET 1 1008 872
WIRE 320 -352 288 -352
WIRE 288 -320 288 -352
WIRE 288 -224 288 -240
WIRE 352 -224 288 -224
WIRE 288 -208 288 -224
WIRE 352 -208 352 -224
WIRE -640 -160 -992 -160
WIRE -336 -160 -640 -160
WIRE 208 -160 0 -160
WIRE 320 -160 320 -352
WIRE 320 -160 304 -160
WIRE 336 -160 320 -160
WIRE 480 -160 432 -160
WIRE 784 -160 480 -160
WIRE 880 -160 784 -160
WIRE 944 -160 880 -160
WIRE -640 -128 -640 -160
WIRE -336 -128 -336 -160
WIRE 0 -96 0 -160
WIRE 208 -96 0 -96
WIRE 320 -96 304 -96
WIRE 336 -96 320 -96
WIRE 512 -96 432 -96
WIRE -992 -80 -992 -160
WIRE -800 -48 -832 -48
WIRE -688 -48 -720 -48
WIRE -496 -48 -528 -48
WIRE -384 -48 -416 -48
WIRE 288 -32 288 -48
WIRE 352 -32 352 -48
WIRE 352 -32 288 -32
WIRE -832 -16 -832 -48
WIRE -640 -16 -640 -32
WIRE -640 -16 -832 -16
WIRE -528 -16 -528 -48
WIRE -336 -16 -336 -32
WIRE -336 -16 -528 -16
WIRE 288 -16 288 -32
WIRE -640 0 -640 -16
WIRE -208 0 -640 0
WIRE 0 32 0 -96
WIRE -992 80 -992 0
WIRE -208 80 -208 0
WIRE 288 96 288 64
WIRE 320 96 320 -96
WIRE 320 96 288 96
WIRE 944 96 944 -160
WIRE 784 112 784 -160
WIRE 320 176 288 176
WIRE 288 208 288 176
WIRE -336 256 -336 -16
WIRE -208 256 -208 160
WIRE -208 256 -336 256
WIRE -640 288 -640 0
WIRE -336 288 -336 256
WIRE 288 304 288 288
WIRE 352 304 288 304
WIRE 288 320 288 304
WIRE 352 320 352 304
WIRE -800 368 -832 368
WIRE -688 368 -720 368
WIRE -496 368 -528 368
WIRE -384 368 -416 368
WIRE 0 368 0 112
WIRE 208 368 0 368
WIRE 320 368 320 176
WIRE 320 368 304 368
WIRE 336 368 320 368
WIRE 480 368 480 -160
WIRE 480 368 432 368
WIRE -832 400 -832 368
WIRE -640 400 -640 384
WIRE -640 400 -832 400
WIRE -528 400 -528 368
WIRE -336 400 -336 384
WIRE -336 400 -528 400
WIRE -992 416 -992 160
WIRE -640 416 -640 400
WIRE -640 416 -992 416
WIRE -336 416 -336 400
WIRE -336 416 -640 416
WIRE -992 432 -992 416
WIRE 0 464 0 368
WIRE 208 464 0 464
WIRE 320 464 304 464
WIRE 336 464 320 464
WIRE 512 464 512 -96
WIRE 512 464 432 464
WIRE 592 464 512 464
WIRE 784 464 784 176
WIRE 784 464 592 464
WIRE 880 464 784 464
WIRE 944 464 944 176
WIRE 944 464 880 464
WIRE 592 480 592 464
WIRE 288 528 288 512
WIRE 352 528 352 512
WIRE 352 528 288 528
WIRE 288 544 288 528
WIRE -864 560 -864 528
WIRE -368 640 -368 608
WIRE 64 640 64 608
WIRE 288 656 288 624
WIRE 320 656 320 464
WIRE 320 656 288 656
WIRE -864 672 -864 640
WIRE -368 752 -368 720
WIRE 64 752 64 720
WIRE -864 784 -864 752
FLAG -368 752 0
FLAG 64 752 0
FLAG 64 608 LO+
FLAG -368 608 LO-
FLAG 880 -160 V_O_P
FLAG -992 432 0
FLAG -864 528 LO+
FLAG -864 784 LO-
FLAG 592 480 0
FLAG 880 464 V_O_N
SYMBOL res 928 80 R0
SYMATTR InstName R1
SYMATTR Value 100
SYMBOL ind2 16 128 R180
WINDOW 0 36 80 Left 2
WINDOW 3 36 40 Left 2
SYMATTR InstName L2
SYMATTR Value 1m
SYMATTR Type ind
SYMATTR SpiceLine Rser=0.1
SYMBOL ind2 -224 64 R0
SYMATTR InstName L1
SYMATTR Value 10m
SYMATTR Type ind
SYMATTR SpiceLine Rser=0.1
SYMBOL nmos -384 -128 R0
WINDOW 0 62 26 Left 2
WINDOW 3 62 50 Left 2
SYMATTR InstName M5
SYMATTR Value IPB065N15N3
SYMBOL nmos -688 -128 R0
WINDOW 0 59 23 Left 2
WINDOW 3 61 51 Left 2
SYMATTR InstName M6
SYMATTR Value IPB065N15N3
SYMBOL nmos -384 288 R0
WINDOW 0 59 39 Left 2
WINDOW 3 59 68 Left 2
SYMATTR InstName M7
SYMATTR Value IPB065N15N3
SYMBOL nmos -688 288 R0
WINDOW 0 61 21 Left 2
WINDOW 3 62 48 Left 2
SYMATTR InstName M8
SYMATTR Value IPB065N15N3
SYMBOL voltage -992 64 M0
WINDOW 123 0 0 Left 0
WINDOW 39 0 0 Left 0
SYMATTR InstName Vin
SYMATTR Value SINE(100 50 1k)
SYMBOL voltage -368 624 R0
WINDOW 123 0 0 Left 0
WINDOW 39 0 0 Left 0
SYMATTR InstName V1
SYMATTR Value PULSE(0 15 0 10n 10n 0.49u 1u)
SYMBOL voltage 64 624 R0
WINDOW 123 0 0 Left 0
WINDOW 39 0 0 Left 0
SYMATTR InstName V2
SYMATTR Value PULSE(0 15 0.5u 10n 10n 0.49u 1u)
SYMBOL ind2 -512 -32 R270
WINDOW 0 32 56 VTop 2
WINDOW 3 5 56 VBottom 2
SYMATTR InstName L5
SYMATTR Value 10µ
SYMATTR Type ind
SYMBOL ind2 -704 -32 M270
WINDOW 0 32 56 VTop 2
WINDOW 3 5 56 VBottom 2
SYMATTR InstName L6
SYMATTR Value 10µ
SYMATTR Type ind
SYMBOL ind2 -816 384 R270
WINDOW 0 32 56 VTop 2
WINDOW 3 5 56 VBottom 2
SYMATTR InstName L7
SYMATTR Value 10µ
SYMATTR Type ind
SYMBOL ind2 -400 384 M270
WINDOW 0 32 56 VTop 2
WINDOW 3 5 56 VBottom 2
SYMATTR InstName L8
SYMATTR Value 10µ
SYMATTR Type ind
SYMBOL ind2 -880 544 R0
SYMATTR InstName L9
SYMATTR Value 10µ
SYMATTR Type ind
SYMBOL res -1008 -96 R0
SYMATTR InstName R2
SYMATTR Value 0.1
SYMBOL res -880 656 R0
SYMATTR InstName R3
SYMATTR Value 0.1
SYMBOL nmos 208 -208 M90
WINDOW 0 62 26 Left 2
WINDOW 3 62 50 Left 2
SYMATTR InstName M1
SYMATTR Value IPB065N15N3
SYMBOL nmos 208 -48 R270
WINDOW 0 59 23 Left 2
WINDOW 3 61 51 Left 2
SYMATTR InstName M2
SYMATTR Value IPB065N15N3
SYMBOL nmos 208 320 M90
WINDOW 0 59 39 Left 2
WINDOW 3 59 68 Left 2
SYMATTR InstName M3
SYMATTR Value IPB065N15N3
SYMBOL nmos 208 512 R270
WINDOW 0 61 21 Left 2
WINDOW 3 62 48 Left 2
SYMATTR InstName M4
SYMATTR Value IPB065N15N3
SYMBOL ind2 304 -336 M0
SYMATTR InstName L10
SYMATTR Value 10µ
SYMATTR Type ind
SYMBOL ind2 304 -32 M0
SYMATTR InstName L11
SYMATTR Value 10µ
SYMATTR Type ind
SYMBOL ind2 304 640 R180
WINDOW 0 36 80 Left 2
WINDOW 3 36 40 Left 2
SYMATTR InstName L12
SYMATTR Value 10µ
SYMATTR Type ind
SYMBOL ind2 304 304 R180
WINDOW 0 36 80 Left 2
WINDOW 3 36 40 Left 2
SYMATTR InstName L13
SYMATTR Value 10µ
SYMATTR Type ind
SYMBOL nmos 432 -208 R90
WINDOW 0 62 26 Left 2
WINDOW 3 62 50 Left 2
SYMATTR InstName M9
SYMATTR Value IPB065N15N3
SYMBOL nmos 432 512 M270
WINDOW 0 61 21 Left 2
WINDOW 3 62 48 Left 2
SYMATTR InstName M10
SYMATTR Value IPB065N15N3
SYMBOL nmos 432 -48 M270
WINDOW 0 62 26 Left 2
WINDOW 3 62 50 Left 2
SYMATTR InstName M11
SYMATTR Value IPB065N15N3
SYMBOL nmos 432 320 R90
WINDOW 0 59 39 Left 2
WINDOW 3 59 68 Left 2
SYMATTR InstName M12
SYMATTR Value IPB065N15N3
TEXT -1076 712 Left 2 !.tran 1m
TEXT -184 -176 Left 2 !K1 L1 L2 1
TEXT -192 496 Left 2 !K3 L5 L6 L7 L8 L9 L10 L11 L12 L13 1
